<routes>

<vType id='CACC' accel='1.5' decel='4.5' minGap='2.5' maxSpeed='50' sigma='0.5' tau='1' carFollowModel='CACC'/>
<route id='1' edges='Edge_1 Edge_2'/>
<route id='2' edges='Edge_1 Edge_3'/>
<vehicle id='0' depart='0' departLane='random' route='2' type='CACC' reroute='true'>
    <param key="has.ssm.device" value="true"/>
    <param key="device.ssm.measures" value="TTC DRAC PET"/>
    <param key="device.ssm.thresholds" value="3.0 3.0 2.0"/>
    <param key="device.ssm.range" value="50.0"/>
    <param key="device.ssm.extratime" value="5.0"/>
     <param key="device.ssm.file" value="conflict/ssm_veh.xml"/>
    <param key="device.ssm.trajectories" value="false"/>
    <param key="device.ssm.geo" value="false"/>
</vehicle>
<vehicle id='1' depart='0' departLane='random' route='1' type='CACC' reroute='true'>
    <param key="has.ssm.device" value="true"/>
    <param key="device.ssm.measures" value="TTC DRAC PET"/>
    <param key="device.ssm.thresholds" value="3.0 3.0 2.0"/>
    <param key="device.ssm.range" value="50.0"/>
    <param key="device.ssm.extratime" value="5.0"/>
     <param key="device.ssm.file" value="conflict/ssm_veh.xml"/>
    <param key="device.ssm.trajectories" value="false"/>
    <param key="device.ssm.geo" value="false"/>
</vehicle>
<vehicle id='2' depart='1' departLane='random' route='1' type='CACC' reroute='true'>
    <param key="has.ssm.device" value="true"/>
    <param key="device.ssm.measures" value="TTC DRAC PET"/>
    <param key="device.ssm.thresholds" value="3.0 3.0 2.0"/>
    <param key="device.ssm.range" value="50.0"/>
    <param key="device.ssm.extratime" value="5.0"/>
     <param key="device.ssm.file" value="conflict/ssm_veh.xml"/>
    <param key="device.ssm.trajectories" value="false"/>
    <param key="device.ssm.geo" value="false"/>
</vehicle>
<vehicle id='3' depart='2' departLane='random' route='1' type='CACC' reroute='true'>
    <param key="has.ssm.device" value="true"/>
    <param key="device.ssm.measures" value="TTC DRAC PET"/>
    <param key="device.ssm.thresholds" value="3.0 3.0 2.0"/>
    <param key="device.ssm.range" value="50.0"/>
    <param key="device.ssm.extratime" value="5.0"/>
     <param key="device.ssm.file" value="conflict/ssm_veh.xml"/>
    <param key="device.ssm.trajectories" value="false"/>
    <param key="device.ssm.geo" value="false"/>
</vehicle>
<vehicle id='4' depart='3' departLane='random' route='2' type='CACC' reroute='true'>
    <param key="has.ssm.device" value="true"/>
    <param key="device.ssm.measures" value="TTC DRAC PET"/>
    <param key="device.ssm.thresholds" value="3.0 3.0 2.0"/>
    <param key="device.ssm.range" value="50.0"/>
    <param key="device.ssm.extratime" value="5.0"/>
     <param key="device.ssm.file" value="conflict/ssm_veh.xml"/>
    <param key="device.ssm.trajectories" value="false"/>
    <param key="device.ssm.geo" value="false"/>
</vehicle>
<vehicle id='5' depart='4' departLane='random' route='1' type='CACC' reroute='true'>
    <param key="has.ssm.device" value="true"/>
    <param key="device.ssm.measures" value="TTC DRAC PET"/>
    <param key="device.ssm.thresholds" value="3.0 3.0 2.0"/>
    <param key="device.ssm.range" value="50.0"/>
    <param key="device.ssm.extratime" value="5.0"/>
     <param key="device.ssm.file" value="conflict/ssm_veh.xml"/>
    <param key="device.ssm.trajectories" value="false"/>
    <param key="device.ssm.geo" value="false"/>
</vehicle>
<vehicle id='6' depart='5' departLane='random' route='1' type='CACC' reroute='true'>
    <param key="has.ssm.device" value="true"/>
    <param key="device.ssm.measures" value="TTC DRAC PET"/>
    <param key="device.ssm.thresholds" value="3.0 3.0 2.0"/>
    <param key="device.ssm.range" value="50.0"/>
    <param key="device.ssm.extratime" value="5.0"/>
     <param key="device.ssm.file" value="conflict/ssm_veh.xml"/>
    <param key="device.ssm.trajectories" value="false"/>
    <param key="device.ssm.geo" value="false"/>
</vehicle>
<vehicle id='7' depart='6' departLane='random' route='1' type='CACC' reroute='true'>
    <param key="has.ssm.device" value="true"/>
    <param key="device.ssm.measures" value="TTC DRAC PET"/>
    <param key="device.ssm.thresholds" value="3.0 3.0 2.0"/>
    <param key="device.ssm.range" value="50.0"/>
    <param key="device.ssm.extratime" value="5.0"/>
     <param key="device.ssm.file" value="conflict/ssm_veh.xml"/>
    <param key="device.ssm.trajectories" value="false"/>
    <param key="device.ssm.geo" value="false"/>
</vehicle>
<vehicle id='8' depart='7' departLane='random' route='1' type='CACC' reroute='true'>
    <param key="has.ssm.device" value="true"/>
    <param key="device.ssm.measures" value="TTC DRAC PET"/>
    <param key="device.ssm.thresholds" value="3.0 3.0 2.0"/>
    <param key="device.ssm.range" value="50.0"/>
    <param key="device.ssm.extratime" value="5.0"/>
     <param key="device.ssm.file" value="conflict/ssm_veh.xml"/>
    <param key="device.ssm.trajectories" value="false"/>
    <param key="device.ssm.geo" value="false"/>
</vehicle>
<vehicle id='9' depart='8' departLane='random' route='1' type='CACC' reroute='true'>
    <param key="has.ssm.device" value="true"/>
    <param key="device.ssm.measures" value="TTC DRAC PET"/>
    <param key="device.ssm.thresholds" value="3.0 3.0 2.0"/>
    <param key="device.ssm.range" value="50.0"/>
    <param key="device.ssm.extratime" value="5.0"/>
     <param key="device.ssm.file" value="conflict/ssm_veh.xml"/>
    <param key="device.ssm.trajectories" value="false"/>
    <param key="device.ssm.geo" value="false"/>
</vehicle>
<vehicle id='10' depart='9' departLane='random' route='1' type='CACC' reroute='true'>
    <param key="has.ssm.device" value="true"/>
    <param key="device.ssm.measures" value="TTC DRAC PET"/>
    <param key="device.ssm.thresholds" value="3.0 3.0 2.0"/>
    <param key="device.ssm.range" value="50.0"/>
    <param key="device.ssm.extratime" value="5.0"/>
     <param key="device.ssm.file" value="conflict/ssm_veh.xml"/>
    <param key="device.ssm.trajectories" value="false"/>
    <param key="device.ssm.geo" value="false"/>
</vehicle>
<vehicle id='11' depart='9' departLane='random' route='2' type='CACC' reroute='true'>
    <param key="has.ssm.device" value="true"/>
    <param key="device.ssm.measures" value="TTC DRAC PET"/>
    <param key="device.ssm.thresholds" value="3.0 3.0 2.0"/>
    <param key="device.ssm.range" value="50.0"/>
    <param key="device.ssm.extratime" value="5.0"/>
     <param key="device.ssm.file" value="conflict/ssm_veh.xml"/>
    <param key="device.ssm.trajectories" value="false"/>
    <param key="device.ssm.geo" value="false"/>
</vehicle>
<vehicle id='12' depart='10' departLane='random' route='2' type='CACC' reroute='true'>
    <param key="has.ssm.device" value="true"/>
    <param key="device.ssm.measures" value="TTC DRAC PET"/>
    <param key="device.ssm.thresholds" value="3.0 3.0 2.0"/>
    <param key="device.ssm.range" value="50.0"/>
    <param key="device.ssm.extratime" value="5.0"/>
     <param key="device.ssm.file" value="conflict/ssm_veh.xml"/>
    <param key="device.ssm.trajectories" value="false"/>
    <param key="device.ssm.geo" value="false"/>
</vehicle>
<vehicle id='13' depart='11' departLane='random' route='2' type='CACC' reroute='true'>
    <param key="has.ssm.device" value="true"/>
    <param key="device.ssm.measures" value="TTC DRAC PET"/>
    <param key="device.ssm.thresholds" value="3.0 3.0 2.0"/>
    <param key="device.ssm.range" value="50.0"/>
    <param key="device.ssm.extratime" value="5.0"/>
     <param key="device.ssm.file" value="conflict/ssm_veh.xml"/>
    <param key="device.ssm.trajectories" value="false"/>
    <param key="device.ssm.geo" value="false"/>
</vehicle>
<vehicle id='14' depart='12' departLane='random' route='1' type='CACC' reroute='true'>
    <param key="has.ssm.device" value="true"/>
    <param key="device.ssm.measures" value="TTC DRAC PET"/>
    <param key="device.ssm.thresholds" value="3.0 3.0 2.0"/>
    <param key="device.ssm.range" value="50.0"/>
    <param key="device.ssm.extratime" value="5.0"/>
     <param key="device.ssm.file" value="conflict/ssm_veh.xml"/>
    <param key="device.ssm.trajectories" value="false"/>
    <param key="device.ssm.geo" value="false"/>
</vehicle>
<vehicle id='15' depart='13' departLane='random' route='2' type='CACC' reroute='true'>
    <param key="has.ssm.device" value="true"/>
    <param key="device.ssm.measures" value="TTC DRAC PET"/>
    <param key="device.ssm.thresholds" value="3.0 3.0 2.0"/>
    <param key="device.ssm.range" value="50.0"/>
    <param key="device.ssm.extratime" value="5.0"/>
     <param key="device.ssm.file" value="conflict/ssm_veh.xml"/>
    <param key="device.ssm.trajectories" value="false"/>
    <param key="device.ssm.geo" value="false"/>
</vehicle>
<vehicle id='16' depart='14' departLane='random' route='2' type='CACC' reroute='true'>
    <param key="has.ssm.device" value="true"/>
    <param key="device.ssm.measures" value="TTC DRAC PET"/>
    <param key="device.ssm.thresholds" value="3.0 3.0 2.0"/>
    <param key="device.ssm.range" value="50.0"/>
    <param key="device.ssm.extratime" value="5.0"/>
     <param key="device.ssm.file" value="conflict/ssm_veh.xml"/>
    <param key="device.ssm.trajectories" value="false"/>
    <param key="device.ssm.geo" value="false"/>
</vehicle>
<vehicle id='17' depart='15' departLane='random' route='1' type='CACC' reroute='true'>
    <param key="has.ssm.device" value="true"/>
    <param key="device.ssm.measures" value="TTC DRAC PET"/>
    <param key="device.ssm.thresholds" value="3.0 3.0 2.0"/>
    <param key="device.ssm.range" value="50.0"/>
    <param key="device.ssm.extratime" value="5.0"/>
     <param key="device.ssm.file" value="conflict/ssm_veh.xml"/>
    <param key="device.ssm.trajectories" value="false"/>
    <param key="device.ssm.geo" value="false"/>
</vehicle>
<vehicle id='18' depart='16' departLane='random' route='1' type='CACC' reroute='true'>
    <param key="has.ssm.device" value="true"/>
    <param key="device.ssm.measures" value="TTC DRAC PET"/>
    <param key="device.ssm.thresholds" value="3.0 3.0 2.0"/>
    <param key="device.ssm.range" value="50.0"/>
    <param key="device.ssm.extratime" value="5.0"/>
     <param key="device.ssm.file" value="conflict/ssm_veh.xml"/>
    <param key="device.ssm.trajectories" value="false"/>
    <param key="device.ssm.geo" value="false"/>
</vehicle>
<vehicle id='19' depart='17' departLane='random' route='2' type='CACC' reroute='true'>
    <param key="has.ssm.device" value="true"/>
    <param key="device.ssm.measures" value="TTC DRAC PET"/>
    <param key="device.ssm.thresholds" value="3.0 3.0 2.0"/>
    <param key="device.ssm.range" value="50.0"/>
    <param key="device.ssm.extratime" value="5.0"/>
     <param key="device.ssm.file" value="conflict/ssm_veh.xml"/>
    <param key="device.ssm.trajectories" value="false"/>
    <param key="device.ssm.geo" value="false"/>
</vehicle>
<vehicle id='20' depart='18' departLane='random' route='1' type='CACC' reroute='true'>
    <param key="has.ssm.device" value="true"/>
    <param key="device.ssm.measures" value="TTC DRAC PET"/>
    <param key="device.ssm.thresholds" value="3.0 3.0 2.0"/>
    <param key="device.ssm.range" value="50.0"/>
    <param key="device.ssm.extratime" value="5.0"/>
     <param key="device.ssm.file" value="conflict/ssm_veh.xml"/>
    <param key="device.ssm.trajectories" value="false"/>
    <param key="device.ssm.geo" value="false"/>
</vehicle>
<vehicle id='21' depart='18' departLane='random' route='1' type='CACC' reroute='true'>
    <param key="has.ssm.device" value="true"/>
    <param key="device.ssm.measures" value="TTC DRAC PET"/>
    <param key="device.ssm.thresholds" value="3.0 3.0 2.0"/>
    <param key="device.ssm.range" value="50.0"/>
    <param key="device.ssm.extratime" value="5.0"/>
     <param key="device.ssm.file" value="conflict/ssm_veh.xml"/>
    <param key="device.ssm.trajectories" value="false"/>
    <param key="device.ssm.geo" value="false"/>
</vehicle>
<vehicle id='22' depart='19' departLane='random' route='2' type='CACC' reroute='true'>
    <param key="has.ssm.device" value="true"/>
    <param key="device.ssm.measures" value="TTC DRAC PET"/>
    <param key="device.ssm.thresholds" value="3.0 3.0 2.0"/>
    <param key="device.ssm.range" value="50.0"/>
    <param key="device.ssm.extratime" value="5.0"/>
     <param key="device.ssm.file" value="conflict/ssm_veh.xml"/>
    <param key="device.ssm.trajectories" value="false"/>
    <param key="device.ssm.geo" value="false"/>
</vehicle>
<vehicle id='23' depart='20' departLane='random' route='2' type='CACC' reroute='true'>
    <param key="has.ssm.device" value="true"/>
    <param key="device.ssm.measures" value="TTC DRAC PET"/>
    <param key="device.ssm.thresholds" value="3.0 3.0 2.0"/>
    <param key="device.ssm.range" value="50.0"/>
    <param key="device.ssm.extratime" value="5.0"/>
     <param key="device.ssm.file" value="conflict/ssm_veh.xml"/>
    <param key="device.ssm.trajectories" value="false"/>
    <param key="device.ssm.geo" value="false"/>
</vehicle>
<vehicle id='24' depart='21' departLane='random' route='1' type='CACC' reroute='true'>
    <param key="has.ssm.device" value="true"/>
    <param key="device.ssm.measures" value="TTC DRAC PET"/>
    <param key="device.ssm.thresholds" value="3.0 3.0 2.0"/>
    <param key="device.ssm.range" value="50.0"/>
    <param key="device.ssm.extratime" value="5.0"/>
     <param key="device.ssm.file" value="conflict/ssm_veh.xml"/>
    <param key="device.ssm.trajectories" value="false"/>
    <param key="device.ssm.geo" value="false"/>
</vehicle>
<vehicle id='25' depart='22' departLane='random' route='1' type='CACC' reroute='true'>
    <param key="has.ssm.device" value="true"/>
    <param key="device.ssm.measures" value="TTC DRAC PET"/>
    <param key="device.ssm.thresholds" value="3.0 3.0 2.0"/>
    <param key="device.ssm.range" value="50.0"/>
    <param key="device.ssm.extratime" value="5.0"/>
     <param key="device.ssm.file" value="conflict/ssm_veh.xml"/>
    <param key="device.ssm.trajectories" value="false"/>
    <param key="device.ssm.geo" value="false"/>
</vehicle>
<vehicle id='26' depart='23' departLane='random' route='1' type='CACC' reroute='true'>
    <param key="has.ssm.device" value="true"/>
    <param key="device.ssm.measures" value="TTC DRAC PET"/>
    <param key="device.ssm.thresholds" value="3.0 3.0 2.0"/>
    <param key="device.ssm.range" value="50.0"/>
    <param key="device.ssm.extratime" value="5.0"/>
     <param key="device.ssm.file" value="conflict/ssm_veh.xml"/>
    <param key="device.ssm.trajectories" value="false"/>
    <param key="device.ssm.geo" value="false"/>
</vehicle>
<vehicle id='27' depart='24' departLane='random' route='2' type='CACC' reroute='true'>
    <param key="has.ssm.device" value="true"/>
    <param key="device.ssm.measures" value="TTC DRAC PET"/>
    <param key="device.ssm.thresholds" value="3.0 3.0 2.0"/>
    <param key="device.ssm.range" value="50.0"/>
    <param key="device.ssm.extratime" value="5.0"/>
     <param key="device.ssm.file" value="conflict/ssm_veh.xml"/>
    <param key="device.ssm.trajectories" value="false"/>
    <param key="device.ssm.geo" value="false"/>
</vehicle>
<vehicle id='28' depart='25' departLane='random' route='2' type='CACC' reroute='true'>
    <param key="has.ssm.device" value="true"/>
    <param key="device.ssm.measures" value="TTC DRAC PET"/>
    <param key="device.ssm.thresholds" value="3.0 3.0 2.0"/>
    <param key="device.ssm.range" value="50.0"/>
    <param key="device.ssm.extratime" value="5.0"/>
     <param key="device.ssm.file" value="conflict/ssm_veh.xml"/>
    <param key="device.ssm.trajectories" value="false"/>
    <param key="device.ssm.geo" value="false"/>
</vehicle>
<vehicle id='29' depart='26' departLane='random' route='2' type='CACC' reroute='true'>
    <param key="has.ssm.device" value="true"/>
    <param key="device.ssm.measures" value="TTC DRAC PET"/>
    <param key="device.ssm.thresholds" value="3.0 3.0 2.0"/>
    <param key="device.ssm.range" value="50.0"/>
    <param key="device.ssm.extratime" value="5.0"/>
     <param key="device.ssm.file" value="conflict/ssm_veh.xml"/>
    <param key="device.ssm.trajectories" value="false"/>
    <param key="device.ssm.geo" value="false"/>
</vehicle>
<vehicle id='30' depart='27' departLane='random' route='1' type='CACC' reroute='true'>
    <param key="has.ssm.device" value="true"/>
    <param key="device.ssm.measures" value="TTC DRAC PET"/>
    <param key="device.ssm.thresholds" value="3.0 3.0 2.0"/>
    <param key="device.ssm.range" value="50.0"/>
    <param key="device.ssm.extratime" value="5.0"/>
     <param key="device.ssm.file" value="conflict/ssm_veh.xml"/>
    <param key="device.ssm.trajectories" value="false"/>
    <param key="device.ssm.geo" value="false"/>
</vehicle>
<vehicle id='31' depart='27' departLane='random' route='1' type='CACC' reroute='true'>
    <param key="has.ssm.device" value="true"/>
    <param key="device.ssm.measures" value="TTC DRAC PET"/>
    <param key="device.ssm.thresholds" value="3.0 3.0 2.0"/>
    <param key="device.ssm.range" value="50.0"/>
    <param key="device.ssm.extratime" value="5.0"/>
     <param key="device.ssm.file" value="conflict/ssm_veh.xml"/>
    <param key="device.ssm.trajectories" value="false"/>
    <param key="device.ssm.geo" value="false"/>
</vehicle>
<vehicle id='32' depart='28' departLane='random' route='2' type='CACC' reroute='true'>
    <param key="has.ssm.device" value="true"/>
    <param key="device.ssm.measures" value="TTC DRAC PET"/>
    <param key="device.ssm.thresholds" value="3.0 3.0 2.0"/>
    <param key="device.ssm.range" value="50.0"/>
    <param key="device.ssm.extratime" value="5.0"/>
     <param key="device.ssm.file" value="conflict/ssm_veh.xml"/>
    <param key="device.ssm.trajectories" value="false"/>
    <param key="device.ssm.geo" value="false"/>
</vehicle>
<vehicle id='33' depart='29' departLane='random' route='1' type='CACC' reroute='true'>
    <param key="has.ssm.device" value="true"/>
    <param key="device.ssm.measures" value="TTC DRAC PET"/>
    <param key="device.ssm.thresholds" value="3.0 3.0 2.0"/>
    <param key="device.ssm.range" value="50.0"/>
    <param key="device.ssm.extratime" value="5.0"/>
     <param key="device.ssm.file" value="conflict/ssm_veh.xml"/>
    <param key="device.ssm.trajectories" value="false"/>
    <param key="device.ssm.geo" value="false"/>
</vehicle>
<vehicle id='34' depart='30' departLane='random' route='2' type='CACC' reroute='true'>
    <param key="has.ssm.device" value="true"/>
    <param key="device.ssm.measures" value="TTC DRAC PET"/>
    <param key="device.ssm.thresholds" value="3.0 3.0 2.0"/>
    <param key="device.ssm.range" value="50.0"/>
    <param key="device.ssm.extratime" value="5.0"/>
     <param key="device.ssm.file" value="conflict/ssm_veh.xml"/>
    <param key="device.ssm.trajectories" value="false"/>
    <param key="device.ssm.geo" value="false"/>
</vehicle>
<vehicle id='35' depart='31' departLane='random' route='1' type='CACC' reroute='true'>
    <param key="has.ssm.device" value="true"/>
    <param key="device.ssm.measures" value="TTC DRAC PET"/>
    <param key="device.ssm.thresholds" value="3.0 3.0 2.0"/>
    <param key="device.ssm.range" value="50.0"/>
    <param key="device.ssm.extratime" value="5.0"/>
     <param key="device.ssm.file" value="conflict/ssm_veh.xml"/>
    <param key="device.ssm.trajectories" value="false"/>
    <param key="device.ssm.geo" value="false"/>
</vehicle>
<vehicle id='36' depart='32' departLane='random' route='1' type='CACC' reroute='true'>
    <param key="has.ssm.device" value="true"/>
    <param key="device.ssm.measures" value="TTC DRAC PET"/>
    <param key="device.ssm.thresholds" value="3.0 3.0 2.0"/>
    <param key="device.ssm.range" value="50.0"/>
    <param key="device.ssm.extratime" value="5.0"/>
     <param key="device.ssm.file" value="conflict/ssm_veh.xml"/>
    <param key="device.ssm.trajectories" value="false"/>
    <param key="device.ssm.geo" value="false"/>
</vehicle>
<vehicle id='37' depart='33' departLane='random' route='2' type='CACC' reroute='true'>
    <param key="has.ssm.device" value="true"/>
    <param key="device.ssm.measures" value="TTC DRAC PET"/>
    <param key="device.ssm.thresholds" value="3.0 3.0 2.0"/>
    <param key="device.ssm.range" value="50.0"/>
    <param key="device.ssm.extratime" value="5.0"/>
     <param key="device.ssm.file" value="conflict/ssm_veh.xml"/>
    <param key="device.ssm.trajectories" value="false"/>
    <param key="device.ssm.geo" value="false"/>
</vehicle>
<vehicle id='38' depart='34' departLane='random' route='1' type='CACC' reroute='true'>
    <param key="has.ssm.device" value="true"/>
    <param key="device.ssm.measures" value="TTC DRAC PET"/>
    <param key="device.ssm.thresholds" value="3.0 3.0 2.0"/>
    <param key="device.ssm.range" value="50.0"/>
    <param key="device.ssm.extratime" value="5.0"/>
     <param key="device.ssm.file" value="conflict/ssm_veh.xml"/>
    <param key="device.ssm.trajectories" value="false"/>
    <param key="device.ssm.geo" value="false"/>
</vehicle>
<vehicle id='39' depart='35' departLane='random' route='1' type='CACC' reroute='true'>
    <param key="has.ssm.device" value="true"/>
    <param key="device.ssm.measures" value="TTC DRAC PET"/>
    <param key="device.ssm.thresholds" value="3.0 3.0 2.0"/>
    <param key="device.ssm.range" value="50.0"/>
    <param key="device.ssm.extratime" value="5.0"/>
     <param key="device.ssm.file" value="conflict/ssm_veh.xml"/>
    <param key="device.ssm.trajectories" value="false"/>
    <param key="device.ssm.geo" value="false"/>
</vehicle>
<vehicle id='40' depart='36' departLane='random' route='1' type='CACC' reroute='true'>
    <param key="has.ssm.device" value="true"/>
    <param key="device.ssm.measures" value="TTC DRAC PET"/>
    <param key="device.ssm.thresholds" value="3.0 3.0 2.0"/>
    <param key="device.ssm.range" value="50.0"/>
    <param key="device.ssm.extratime" value="5.0"/>
     <param key="device.ssm.file" value="conflict/ssm_veh.xml"/>
    <param key="device.ssm.trajectories" value="false"/>
    <param key="device.ssm.geo" value="false"/>
</vehicle>
<vehicle id='41' depart='36' departLane='random' route='1' type='CACC' reroute='true'>
    <param key="has.ssm.device" value="true"/>
    <param key="device.ssm.measures" value="TTC DRAC PET"/>
    <param key="device.ssm.thresholds" value="3.0 3.0 2.0"/>
    <param key="device.ssm.range" value="50.0"/>
    <param key="device.ssm.extratime" value="5.0"/>
     <param key="device.ssm.file" value="conflict/ssm_veh.xml"/>
    <param key="device.ssm.trajectories" value="false"/>
    <param key="device.ssm.geo" value="false"/>
</vehicle>
<vehicle id='42' depart='37' departLane='random' route='1' type='CACC' reroute='true'>
    <param key="has.ssm.device" value="true"/>
    <param key="device.ssm.measures" value="TTC DRAC PET"/>
    <param key="device.ssm.thresholds" value="3.0 3.0 2.0"/>
    <param key="device.ssm.range" value="50.0"/>
    <param key="device.ssm.extratime" value="5.0"/>
     <param key="device.ssm.file" value="conflict/ssm_veh.xml"/>
    <param key="device.ssm.trajectories" value="false"/>
    <param key="device.ssm.geo" value="false"/>
</vehicle>
<vehicle id='43' depart='38' departLane='random' route='1' type='CACC' reroute='true'>
    <param key="has.ssm.device" value="true"/>
    <param key="device.ssm.measures" value="TTC DRAC PET"/>
    <param key="device.ssm.thresholds" value="3.0 3.0 2.0"/>
    <param key="device.ssm.range" value="50.0"/>
    <param key="device.ssm.extratime" value="5.0"/>
     <param key="device.ssm.file" value="conflict/ssm_veh.xml"/>
    <param key="device.ssm.trajectories" value="false"/>
    <param key="device.ssm.geo" value="false"/>
</vehicle>
<vehicle id='44' depart='39' departLane='random' route='1' type='CACC' reroute='true'>
    <param key="has.ssm.device" value="true"/>
    <param key="device.ssm.measures" value="TTC DRAC PET"/>
    <param key="device.ssm.thresholds" value="3.0 3.0 2.0"/>
    <param key="device.ssm.range" value="50.0"/>
    <param key="device.ssm.extratime" value="5.0"/>
     <param key="device.ssm.file" value="conflict/ssm_veh.xml"/>
    <param key="device.ssm.trajectories" value="false"/>
    <param key="device.ssm.geo" value="false"/>
</vehicle>
<vehicle id='45' depart='40' departLane='random' route='1' type='CACC' reroute='true'>
    <param key="has.ssm.device" value="true"/>
    <param key="device.ssm.measures" value="TTC DRAC PET"/>
    <param key="device.ssm.thresholds" value="3.0 3.0 2.0"/>
    <param key="device.ssm.range" value="50.0"/>
    <param key="device.ssm.extratime" value="5.0"/>
     <param key="device.ssm.file" value="conflict/ssm_veh.xml"/>
    <param key="device.ssm.trajectories" value="false"/>
    <param key="device.ssm.geo" value="false"/>
</vehicle>
<vehicle id='46' depart='41' departLane='random' route='2' type='CACC' reroute='true'>
    <param key="has.ssm.device" value="true"/>
    <param key="device.ssm.measures" value="TTC DRAC PET"/>
    <param key="device.ssm.thresholds" value="3.0 3.0 2.0"/>
    <param key="device.ssm.range" value="50.0"/>
    <param key="device.ssm.extratime" value="5.0"/>
     <param key="device.ssm.file" value="conflict/ssm_veh.xml"/>
    <param key="device.ssm.trajectories" value="false"/>
    <param key="device.ssm.geo" value="false"/>
</vehicle>
<vehicle id='47' depart='42' departLane='random' route='2' type='CACC' reroute='true'>
    <param key="has.ssm.device" value="true"/>
    <param key="device.ssm.measures" value="TTC DRAC PET"/>
    <param key="device.ssm.thresholds" value="3.0 3.0 2.0"/>
    <param key="device.ssm.range" value="50.0"/>
    <param key="device.ssm.extratime" value="5.0"/>
     <param key="device.ssm.file" value="conflict/ssm_veh.xml"/>
    <param key="device.ssm.trajectories" value="false"/>
    <param key="device.ssm.geo" value="false"/>
</vehicle>
<vehicle id='48' depart='43' departLane='random' route='2' type='CACC' reroute='true'>
    <param key="has.ssm.device" value="true"/>
    <param key="device.ssm.measures" value="TTC DRAC PET"/>
    <param key="device.ssm.thresholds" value="3.0 3.0 2.0"/>
    <param key="device.ssm.range" value="50.0"/>
    <param key="device.ssm.extratime" value="5.0"/>
     <param key="device.ssm.file" value="conflict/ssm_veh.xml"/>
    <param key="device.ssm.trajectories" value="false"/>
    <param key="device.ssm.geo" value="false"/>
</vehicle>
<vehicle id='49' depart='44' departLane='random' route='1' type='CACC' reroute='true'>
    <param key="has.ssm.device" value="true"/>
    <param key="device.ssm.measures" value="TTC DRAC PET"/>
    <param key="device.ssm.thresholds" value="3.0 3.0 2.0"/>
    <param key="device.ssm.range" value="50.0"/>
    <param key="device.ssm.extratime" value="5.0"/>
     <param key="device.ssm.file" value="conflict/ssm_veh.xml"/>
    <param key="device.ssm.trajectories" value="false"/>
    <param key="device.ssm.geo" value="false"/>
</vehicle>
<vehicle id='50' depart='45' departLane='random' route='1' type='CACC' reroute='true'>
    <param key="has.ssm.device" value="true"/>
    <param key="device.ssm.measures" value="TTC DRAC PET"/>
    <param key="device.ssm.thresholds" value="3.0 3.0 2.0"/>
    <param key="device.ssm.range" value="50.0"/>
    <param key="device.ssm.extratime" value="5.0"/>
     <param key="device.ssm.file" value="conflict/ssm_veh.xml"/>
    <param key="device.ssm.trajectories" value="false"/>
    <param key="device.ssm.geo" value="false"/>
</vehicle>
<vehicle id='51' depart='45' departLane='random' route='1' type='CACC' reroute='true'>
    <param key="has.ssm.device" value="true"/>
    <param key="device.ssm.measures" value="TTC DRAC PET"/>
    <param key="device.ssm.thresholds" value="3.0 3.0 2.0"/>
    <param key="device.ssm.range" value="50.0"/>
    <param key="device.ssm.extratime" value="5.0"/>
     <param key="device.ssm.file" value="conflict/ssm_veh.xml"/>
    <param key="device.ssm.trajectories" value="false"/>
    <param key="device.ssm.geo" value="false"/>
</vehicle>
<vehicle id='52' depart='46' departLane='random' route='2' type='CACC' reroute='true'>
    <param key="has.ssm.device" value="true"/>
    <param key="device.ssm.measures" value="TTC DRAC PET"/>
    <param key="device.ssm.thresholds" value="3.0 3.0 2.0"/>
    <param key="device.ssm.range" value="50.0"/>
    <param key="device.ssm.extratime" value="5.0"/>
     <param key="device.ssm.file" value="conflict/ssm_veh.xml"/>
    <param key="device.ssm.trajectories" value="false"/>
    <param key="device.ssm.geo" value="false"/>
</vehicle>
<vehicle id='53' depart='47' departLane='random' route='2' type='CACC' reroute='true'>
    <param key="has.ssm.device" value="true"/>
    <param key="device.ssm.measures" value="TTC DRAC PET"/>
    <param key="device.ssm.thresholds" value="3.0 3.0 2.0"/>
    <param key="device.ssm.range" value="50.0"/>
    <param key="device.ssm.extratime" value="5.0"/>
     <param key="device.ssm.file" value="conflict/ssm_veh.xml"/>
    <param key="device.ssm.trajectories" value="false"/>
    <param key="device.ssm.geo" value="false"/>
</vehicle>
<vehicle id='54' depart='48' departLane='random' route='2' type='CACC' reroute='true'>
    <param key="has.ssm.device" value="true"/>
    <param key="device.ssm.measures" value="TTC DRAC PET"/>
    <param key="device.ssm.thresholds" value="3.0 3.0 2.0"/>